Circuit: * C:\Users\merch\OneDrive\Documents\LTSpice\RF\impedanceTransformers\imp_transfx\example 3-6_2nbw.asc


Date: Tue Aug 22 18:00:11 2017
Total elapsed time: 0.041 seconds.

tnom = 27
temp = 27
method = trap
totiter = 0
traniter = 0
tranpoints = 0
accept = 0
rejected = 0
matrix size = 4
fillins = 0
solver = Normal

