Circuit: * C:/Users/merch/OneDrive/Documents/LTSpice/RF/impedanceTransformer2/imp_transfx/bw_control.asc


Date: Sun Aug 13 15:09:26 2017
Total elapsed time: 0.044 seconds.

tnom = 27
temp = 27
method = trap
totiter = 0
traniter = 0
tranpoints = 0
accept = 0
rejected = 0
matrix size = 4
fillins = 0
solver = Normal

