Circuit: * C:\Users\merch\OneDrive\Documents\LTSpice\RF\impedanceTransformer2\imp_transfx\RF_impedance_Transformer_BW100k.asc


Date: Sat Aug 12 14:07:30 2017
Total elapsed time: 0.335 seconds.

tnom = 27
temp = 27
method = trap
totiter = 0
traniter = 0
tranpoints = 0
accept = 0
rejected = 0
matrix size = 4
fillins = 0
solver = Normal

